VERS 150303 208 24485
MODE SEQ
NAME 
PFIL 0 0 0
UNIT MM X W X CM MR CPMM
ENPD 3.0E+1
ENVD 2.0E+1 1 0
GFAC 0 0
GCAT SCHOTT
RAIM 0 0 1 1 0 0 0 0 0
PUSH 0 0 0 0 0 0
SDMA 0 1 0
FTYP 0 0 10 1 0 0 0
ROPD 2
PICB 1
XFLN 0 1 -1. 0 0 2 2 -2. -2. 4.0 0 0
YFLN 0 0 0 1 -1. 2 -2. 2 -2. 4.0 0 0
FWGN 1 1 1 1 1 1 1 1 1 1 1 1
VDXN 0 0 0 0 0 0 0 0 0 0 0 0
VDYN 0 0 0 0 0 0 0 0 0 0 0 0
VCXN 0 0 0 0 0 0 0 0 0 0 0 0
VCYN 0 0 0 0 0 0 0 0 0 0 0 0
VANN 0 0 0 0 0 0 0 0 0 0 0 0
WAVM 1 5.5E-1 1
WAVM 2 5.5E-1 1
WAVM 3 5.5E-1 1
WAVM 4 5.5E-1 1
WAVM 5 5.5E-1 1
WAVM 6 5.5E-1 1
WAVM 7 5.5E-1 1
WAVM 8 5.5E-1 1
WAVM 9 5.5E-1 1
WAVM 10 5.5E-1 1
WAVM 11 5.5E-1 1
WAVM 12 5.5E-1 1
WAVM 13 5.5E-1 1
WAVM 14 5.5E-1 1
WAVM 15 5.5E-1 1
WAVM 16 5.5E-1 1
WAVM 17 5.5E-1 1
WAVM 18 5.5E-1 1
WAVM 19 5.5E-1 1
WAVM 20 5.5E-1 1
WAVM 21 5.5E-1 1
WAVM 22 5.5E-1 1
WAVM 23 5.5E-1 1
WAVM 24 5.5E-1 1
PWAV 1
POLS 1 0 1 0 0 1 0
GLRS 3 0
GSTD 0 100.000 100.000 100.000 100.000 100.000 100.000 0 1 1 0 0 1 1 1 1 1 1
NSCD 100 500 0 1.0E-3 5 1.0E-6 0 0 0 0 0 0 1000000 0 2
COFN QF "COATING.DAT" "SCATTER_PROFILE.DAT" "ABG_DATA.DAT" "PROFILE.GRD"
COFN COATING.DAT SCATTER_PROFILE.DAT ABG_DATA.DAT PROFILE.GRD
SURF 0
  TYPE STANDARD
  CURV 0.0 0 0 0 0 ""
  HIDE 0 0 0 0 0 0 0 0 0 0
  MIRR 2 0
  SLAB 1
  DISZ INFINITY
  DIAM 0 0 0 0 1 ""
  POPS 0 0 0 0 0 0 0 0 1 1 1 1 0 0 0 0
SURF 1
  TYPE STANDARD
  CURV 0.0 0 0 0 0 ""
  HIDE 0 0 0 0 0 0 0 0 0 0
  MIRR 2 0
  SLAB 11
  DISZ 4.0E+2
  DIAM 1.5E+1 1 0 0 1 ""
  POPS 0 0 0 0 0 0 0 0 1 1 1 1 0 0 0 0
SURF 2
  TYPE COORDBRK
  CURV 0.0 0 0.0 0.0 0
  HIDE 0 0 0 0 0 0 0 0 0 0
  MIRR 2 0
  SLAB 4
  PARM 1 -7.5E+1
  PARM 2 0
  PARM 3 0
  PARM 4 0
  PARM 5 0
  PARM 6 0
  DISZ 0
  DIAM 0 0 0 0 1 ""
  POPS 0 0 0 0 0 0 0 0 1 1 1 1 0 0 0 0
SURF 3
  STOP
  TYPE STANDARD
  CURV 5.000000000000000100E-003 0 0 0 0 ""
  HIDE 0 0 0 0 0 0 0 0 0 0
  MIRR 2 0
  SLAB 2
  DISZ -3.00055162975E+2
  GLAS MIRROR 0 0 1.5 4.0E+1 0 0 0 0 0 0 
  VDSZ 0 0
  DIAM 1.0E+2 1 0 0 1 ""
  POPS 0 0 0 0 0 0 0 0 1 1 1 1 0 0 0 0
  FLAP 0 1.0E+2 0
SURF 4
  TYPE STANDARD
  CURV 2.000000000000000000E-003 0 0 0 0 ""
  HIDE 0 0 0 0 0 0 0 0 0 0
  MIRR 2 0
  SLAB 8
  DISZ 0
  GLAS MIRROR 0 0 1.5 4.0E+1 0 0 0 0 0 0 
  DIAM 4.0E+2 1 0 0 1 ""
  POPS 0 0 0 0 0 0 0 0 1 1 1 1 0 0 0 0
  FLAP 0 4.0E+2 0
SURF 5
  TYPE STANDARD
  CURV 0.0 0 0 0 0 ""
  HIDE 0 0 1 0 0 0 0 1 0 0
  MIRR 2 0
  SLAB 10
  DISZ 6.660742083617E+2
  VDSZ 0 0
  DIAM 4.484945445226E+2 0 0 0 1 ""
  POPS 0 0 0 0 0 0 0 0 1 1 1 1 0 0 0 0
SURF 6
  TYPE STANDARD
  CURV 0.0 0 0 0 0 ""
  HIDE 0 0 0 0 0 0 0 0 0 0
  MIRR 2 0
  SLAB 3
  DISZ 0
  DIAM 1.618468301532E+1 0 0 0 1 ""
  POPS 0 0 0 0 0 0 0 0 1 1 1 1 0 0 0 0
  SQAP 2.0E+1 2.0E+1 0
DMFS 0 0 0 0 0 0 0 0 0 0
BLNK Sequential merit function: RMS spot radius centroid GQ 16 rings 6 arms
BLNK No default air thickness boundary constraints.
BLNK No default glass thickness boundary constraints.
BLNK Operands for field 1.
TRAC 0 1 0 0 3.639894402375E-2 6.304482039098E-2 0 7.898330279153E-4 0 0
TRAC 0 1 0 0 8.323534174764E-2 1.441678408923E-1 0 1.810881606164E-3 0 0
TRAC 0 1 0 0 1.295997673668E-1 2.244733817284E-1 0 2.768048900227E-3 0 0
TRAC 0 1 0 0 1.74855508794E-1 3.028586252146E-1 0 3.625309819636E-3 0 0
TRAC 0 1 0 0 2.185531272933E-1 3.78545120625E-1 0 4.351570921043E-3 0 0
TRAC 0 1 0 0 2.602842730417E-1 4.508255853194E-1 0 4.920563691094E-3 0 0
TRAC 0 1 0 0 2.996657407055E-1 5.190362881897E-1 0 5.311718029866E-3 0 0
TRAC 0 1 0 0 3.363382765465E-1 5.825549835088E-1 0 5.51089487059E-3 0 0
TRAC 0 1 0 0 3.699683280089E-1 6.408039413027E-1 0 5.51089487059E-3 0 0
TRAC 0 1 0 0 4.002504763862E-1 6.932541608546E-1 0 5.311718029866E-3 0 0
TRAC 0 1 0 0 4.269099403939E-1 7.394297070185E-1 0 4.920563691094E-3 0 0
TRAC 0 1 0 0 4.497049372092E-1 7.789117996609E-1 0 4.351570921043E-3 0 0
TRAC 0 1 0 0 4.684288110742E-1 8.113425005096E-1 0 3.625309819636E-3 0 0
TRAC 0 1 0 0 4.829118970356E-1 8.364279412451E-1 0 2.768048900227E-3 0 0
TRAC 0 1 0 0 4.930232021763E-1 8.539412354796E-1 0 1.810881606164E-3 0 0
TRAC 0 1 0 0 4.98673356892E-1 8.637275905179E-1 0 7.898330279153E-4 0 0
TRAC 0 1 0 0 7.279788804749E-2 0 0 7.898330279153E-4 0 0
TRAC 0 1 0 0 1.664706834953E-1 0 0 1.810881606164E-3 0 0
TRAC 0 1 0 0 2.591995347335E-1 0 0 2.768048900227E-3 0 0
TRAC 0 1 0 0 3.497110175881E-1 0 0 3.625309819636E-3 0 0
TRAC 0 1 0 0 4.371062545865E-1 0 0 4.351570921043E-3 0 0
TRAC 0 1 0 0 5.205685460834E-1 0 0 4.920563691094E-3 0 0
TRAC 0 1 0 0 5.993314814111E-1 0 0 5.311718029866E-3 0 0
TRAC 0 1 0 0 6.726765530931E-1 0 0 5.51089487059E-3 0 0
TRAC 0 1 0 0 7.399366560178E-1 0 0 5.51089487059E-3 0 0
TRAC 0 1 0 0 8.005009527725E-1 0 0 5.311718029866E-3 0 0
TRAC 0 1 0 0 8.538198807879E-1 0 0 4.920563691094E-3 0 0
TRAC 0 1 0 0 8.994098744184E-1 0 0 4.351570921043E-3 0 0
TRAC 0 1 0 0 9.368576221484E-1 0 0 3.625309819636E-3 0 0
TRAC 0 1 0 0 9.658237940711E-1 0 0 2.768048900227E-3 0 0
TRAC 0 1 0 0 9.860464043526E-1 0 0 1.810881606164E-3 0 0
TRAC 0 1 0 0 9.97346713784E-1 0 0 7.898330279153E-4 0 0
TRAC 0 1 0 0 3.639894402375E-2 -6.304482039098E-2 0 7.898330279153E-4 0 0
TRAC 0 1 0 0 8.323534174764E-2 -1.441678408923E-1 0 1.810881606164E-3 0 0
TRAC 0 1 0 0 1.295997673668E-1 -2.244733817284E-1 0 2.768048900227E-3 0 0
TRAC 0 1 0 0 1.74855508794E-1 -3.028586252146E-1 0 3.625309819636E-3 0 0
TRAC 0 1 0 0 2.185531272933E-1 -3.78545120625E-1 0 4.351570921043E-3 0 0
TRAC 0 1 0 0 2.602842730417E-1 -4.508255853194E-1 0 4.920563691094E-3 0 0
TRAC 0 1 0 0 2.996657407055E-1 -5.190362881897E-1 0 5.311718029866E-3 0 0
TRAC 0 1 0 0 3.363382765465E-1 -5.825549835088E-1 0 5.51089487059E-3 0 0
TRAC 0 1 0 0 3.699683280089E-1 -6.408039413027E-1 0 5.51089487059E-3 0 0
TRAC 0 1 0 0 4.002504763862E-1 -6.932541608546E-1 0 5.311718029866E-3 0 0
TRAC 0 1 0 0 4.269099403939E-1 -7.394297070185E-1 0 4.920563691094E-3 0 0
TRAC 0 1 0 0 4.497049372092E-1 -7.789117996609E-1 0 4.351570921043E-3 0 0
TRAC 0 1 0 0 4.684288110742E-1 -8.113425005096E-1 0 3.625309819636E-3 0 0
TRAC 0 1 0 0 4.829118970356E-1 -8.364279412451E-1 0 2.768048900227E-3 0 0
TRAC 0 1 0 0 4.930232021763E-1 -8.539412354796E-1 0 1.810881606164E-3 0 0
TRAC 0 1 0 0 4.98673356892E-1 -8.637275905179E-1 0 7.898330279153E-4 0 0
TRAC 0 1 0 0 -3.639894402375E-2 -6.304482039098E-2 0 7.898330279153E-4 0 0
TRAC 0 1 0 0 -8.323534174764E-2 -1.441678408923E-1 0 1.810881606164E-3 0 0
TRAC 0 1 0 0 -1.295997673668E-1 -2.244733817284E-1 0 2.768048900227E-3 0 0
TRAC 0 1 0 0 -1.74855508794E-1 -3.028586252146E-1 0 3.625309819636E-3 0 0
TRAC 0 1 0 0 -2.185531272933E-1 -3.78545120625E-1 0 4.351570921043E-3 0 0
TRAC 0 1 0 0 -2.602842730417E-1 -4.508255853194E-1 0 4.920563691094E-3 0 0
TRAC 0 1 0 0 -2.996657407055E-1 -5.190362881897E-1 0 5.311718029866E-3 0 0
TRAC 0 1 0 0 -3.363382765465E-1 -5.825549835088E-1 0 5.51089487059E-3 0 0
TRAC 0 1 0 0 -3.699683280089E-1 -6.408039413027E-1 0 5.51089487059E-3 0 0
TRAC 0 1 0 0 -4.002504763862E-1 -6.932541608546E-1 0 5.311718029866E-3 0 0
TRAC 0 1 0 0 -4.269099403939E-1 -7.394297070185E-1 0 4.920563691094E-3 0 0
TRAC 0 1 0 0 -4.497049372092E-1 -7.789117996609E-1 0 4.351570921043E-3 0 0
TRAC 0 1 0 0 -4.684288110742E-1 -8.113425005096E-1 0 3.625309819636E-3 0 0
TRAC 0 1 0 0 -4.829118970356E-1 -8.364279412451E-1 0 2.768048900227E-3 0 0
TRAC 0 1 0 0 -4.930232021763E-1 -8.539412354796E-1 0 1.810881606164E-3 0 0
TRAC 0 1 0 0 -4.98673356892E-1 -8.637275905179E-1 0 7.898330279153E-4 0 0
TRAC 0 1 0 0 -7.279788804749E-2 5.574234310532E-17 0 7.898330279153E-4 0 0
TRAC 0 1 0 0 -1.664706834953E-1 1.274688896238E-16 0 1.810881606164E-3 0 0
TRAC 0 1 0 0 -2.591995347335E-1 1.984726450915E-16 0 2.768048900227E-3 0 0
TRAC 0 1 0 0 -3.497110175881E-1 2.677785311215E-16 0 3.625309819636E-3 0 0
TRAC 0 1 0 0 -4.371062545865E-1 3.34698264883E-16 0 4.351570921043E-3 0 0
TRAC 0 1 0 0 -5.205685460834E-1 3.986064882362E-16 0 4.920563691094E-3 0 0
TRAC 0 1 0 0 -5.993314814111E-1 4.589163500024E-16 0 5.311718029866E-3 0 0
TRAC 0 1 0 0 -6.726765530931E-1 5.150776791348E-16 0 5.51089487059E-3 0 0
TRAC 0 1 0 0 -7.399366560178E-1 5.665796640837E-16 0 5.51089487059E-3 0 0
TRAC 0 1 0 0 -8.005009527725E-1 6.129545782492E-16 0 5.311718029866E-3 0 0
TRAC 0 1 0 0 -8.538198807879E-1 6.537816140212E-16 0 4.920563691094E-3 0 0
TRAC 0 1 0 0 -8.994098744184E-1 6.886904985408E-16 0 4.351570921043E-3 0 0
TRAC 0 1 0 0 -9.368576221484E-1 7.173647535017E-16 0 3.625309819636E-3 0 0
TRAC 0 1 0 0 -9.658237940711E-1 7.395445493319E-16 0 2.768048900227E-3 0 0
TRAC 0 1 0 0 -9.860464043526E-1 7.550292798787E-16 0 1.810881606164E-3 0 0
TRAC 0 1 0 0 -9.97346713784E-1 7.636820820742E-16 0 7.898330279153E-4 0 0
TRAC 0 1 0 0 -3.639894402375E-2 6.304482039098E-2 0 7.898330279153E-4 0 0
TRAC 0 1 0 0 -8.323534174764E-2 1.441678408923E-1 0 1.810881606164E-3 0 0
TRAC 0 1 0 0 -1.295997673668E-1 2.244733817284E-1 0 2.768048900227E-3 0 0
TRAC 0 1 0 0 -1.74855508794E-1 3.028586252146E-1 0 3.625309819636E-3 0 0
TRAC 0 1 0 0 -2.185531272933E-1 3.78545120625E-1 0 4.351570921043E-3 0 0
TRAC 0 1 0 0 -2.602842730417E-1 4.508255853194E-1 0 4.920563691094E-3 0 0
TRAC 0 1 0 0 -2.996657407055E-1 5.190362881897E-1 0 5.311718029866E-3 0 0
TRAC 0 1 0 0 -3.363382765465E-1 5.825549835088E-1 0 5.51089487059E-3 0 0
TRAC 0 1 0 0 -3.699683280089E-1 6.408039413027E-1 0 5.51089487059E-3 0 0
TRAC 0 1 0 0 -4.002504763862E-1 6.932541608546E-1 0 5.311718029866E-3 0 0
TRAC 0 1 0 0 -4.269099403939E-1 7.394297070185E-1 0 4.920563691094E-3 0 0
TRAC 0 1 0 0 -4.497049372092E-1 7.789117996609E-1 0 4.351570921043E-3 0 0
TRAC 0 1 0 0 -4.684288110742E-1 8.113425005096E-1 0 3.625309819636E-3 0 0
TRAC 0 1 0 0 -4.829118970356E-1 8.364279412451E-1 0 2.768048900227E-3 0 0
TRAC 0 1 0 0 -4.930232021763E-1 8.539412354796E-1 0 1.810881606164E-3 0 0
TRAC 0 1 0 0 -4.98673356892E-1 8.637275905179E-1 0 7.898330279153E-4 0 0
BLNK Operands for field 2.
TRAC 0 1 7.071067811865E-1 0 3.639894402375E-2 6.304482039098E-2 0 7.898330279153E-4 0 0
TRAC 0 1 7.071067811865E-1 0 8.323534174764E-2 1.441678408923E-1 0 1.810881606164E-3 0 0
TRAC 0 1 7.071067811865E-1 0 1.295997673668E-1 2.244733817284E-1 0 2.768048900227E-3 0 0
TRAC 0 1 7.071067811865E-1 0 1.74855508794E-1 3.028586252146E-1 0 3.625309819636E-3 0 0
TRAC 0 1 7.071067811865E-1 0 2.185531272933E-1 3.78545120625E-1 0 4.351570921043E-3 0 0
TRAC 0 1 7.071067811865E-1 0 2.602842730417E-1 4.508255853194E-1 0 4.920563691094E-3 0 0
TRAC 0 1 7.071067811865E-1 0 2.996657407055E-1 5.190362881897E-1 0 5.311718029866E-3 0 0
TRAC 0 1 7.071067811865E-1 0 3.363382765465E-1 5.825549835088E-1 0 5.51089487059E-3 0 0
TRAC 0 1 7.071067811865E-1 0 3.699683280089E-1 6.408039413027E-1 0 5.51089487059E-3 0 0
TRAC 0 1 7.071067811865E-1 0 4.002504763862E-1 6.932541608546E-1 0 5.311718029866E-3 0 0
TRAC 0 1 7.071067811865E-1 0 4.269099403939E-1 7.394297070185E-1 0 4.920563691094E-3 0 0
TRAC 0 1 7.071067811865E-1 0 4.497049372092E-1 7.789117996609E-1 0 4.351570921043E-3 0 0
TRAC 0 1 7.071067811865E-1 0 4.684288110742E-1 8.113425005096E-1 0 3.625309819636E-3 0 0
TRAC 0 1 7.071067811865E-1 0 4.829118970356E-1 8.364279412451E-1 0 2.768048900227E-3 0 0
TRAC 0 1 7.071067811865E-1 0 4.930232021763E-1 8.539412354796E-1 0 1.810881606164E-3 0 0
TRAC 0 1 7.071067811865E-1 0 4.98673356892E-1 8.637275905179E-1 0 7.898330279153E-4 0 0
TRAC 0 1 7.071067811865E-1 0 7.279788804749E-2 0 0 7.898330279153E-4 0 0
TRAC 0 1 7.071067811865E-1 0 1.664706834953E-1 0 0 1.810881606164E-3 0 0
TRAC 0 1 7.071067811865E-1 0 2.591995347335E-1 0 0 2.768048900227E-3 0 0
TRAC 0 1 7.071067811865E-1 0 3.497110175881E-1 0 0 3.625309819636E-3 0 0
TRAC 0 1 7.071067811865E-1 0 4.371062545865E-1 0 0 4.351570921043E-3 0 0
TRAC 0 1 7.071067811865E-1 0 5.205685460834E-1 0 0 4.920563691094E-3 0 0
TRAC 0 1 7.071067811865E-1 0 5.993314814111E-1 0 0 5.311718029866E-3 0 0
TRAC 0 1 7.071067811865E-1 0 6.726765530931E-1 0 0 5.51089487059E-3 0 0
TRAC 0 1 7.071067811865E-1 0 7.399366560178E-1 0 0 5.51089487059E-3 0 0
TRAC 0 1 7.071067811865E-1 0 8.005009527725E-1 0 0 5.311718029866E-3 0 0
TRAC 0 1 7.071067811865E-1 0 8.538198807879E-1 0 0 4.920563691094E-3 0 0
TRAC 0 1 7.071067811865E-1 0 8.994098744184E-1 0 0 4.351570921043E-3 0 0
TRAC 0 1 7.071067811865E-1 0 9.368576221484E-1 0 0 3.625309819636E-3 0 0
TRAC 0 1 7.071067811865E-1 0 9.658237940711E-1 0 0 2.768048900227E-3 0 0
TRAC 0 1 7.071067811865E-1 0 9.860464043526E-1 0 0 1.810881606164E-3 0 0
TRAC 0 1 7.071067811865E-1 0 9.97346713784E-1 0 0 7.898330279153E-4 0 0
TRAC 0 1 7.071067811865E-1 0 3.639894402375E-2 -6.304482039098E-2 0 7.898330279153E-4 0 0
TRAC 0 1 7.071067811865E-1 0 8.323534174764E-2 -1.441678408923E-1 0 1.810881606164E-3 0 0
TRAC 0 1 7.071067811865E-1 0 1.295997673668E-1 -2.244733817284E-1 0 2.768048900227E-3 0 0
TRAC 0 1 7.071067811865E-1 0 1.74855508794E-1 -3.028586252146E-1 0 3.625309819636E-3 0 0
TRAC 0 1 7.071067811865E-1 0 2.185531272933E-1 -3.78545120625E-1 0 4.351570921043E-3 0 0
TRAC 0 1 7.071067811865E-1 0 2.602842730417E-1 -4.508255853194E-1 0 4.920563691094E-3 0 0
TRAC 0 1 7.071067811865E-1 0 2.996657407055E-1 -5.190362881897E-1 0 5.311718029866E-3 0 0
TRAC 0 1 7.071067811865E-1 0 3.363382765465E-1 -5.825549835088E-1 0 5.51089487059E-3 0 0
TRAC 0 1 7.071067811865E-1 0 3.699683280089E-1 -6.408039413027E-1 0 5.51089487059E-3 0 0
TRAC 0 1 7.071067811865E-1 0 4.002504763862E-1 -6.932541608546E-1 0 5.311718029866E-3 0 0
TRAC 0 1 7.071067811865E-1 0 4.269099403939E-1 -7.394297070185E-1 0 4.920563691094E-3 0 0
TRAC 0 1 7.071067811865E-1 0 4.497049372092E-1 -7.789117996609E-1 0 4.351570921043E-3 0 0
TRAC 0 1 7.071067811865E-1 0 4.684288110742E-1 -8.113425005096E-1 0 3.625309819636E-3 0 0
TRAC 0 1 7.071067811865E-1 0 4.829118970356E-1 -8.364279412451E-1 0 2.768048900227E-3 0 0
TRAC 0 1 7.071067811865E-1 0 4.930232021763E-1 -8.539412354796E-1 0 1.810881606164E-3 0 0
TRAC 0 1 7.071067811865E-1 0 4.98673356892E-1 -8.637275905179E-1 0 7.898330279153E-4 0 0
TRAC 0 1 7.071067811865E-1 0 -3.639894402375E-2 -6.304482039098E-2 0 7.898330279153E-4 0 0
TRAC 0 1 7.071067811865E-1 0 -8.323534174764E-2 -1.441678408923E-1 0 1.810881606164E-3 0 0
TRAC 0 1 7.071067811865E-1 0 -1.295997673668E-1 -2.244733817284E-1 0 2.768048900227E-3 0 0
TRAC 0 1 7.071067811865E-1 0 -1.74855508794E-1 -3.028586252146E-1 0 3.625309819636E-3 0 0
TRAC 0 1 7.071067811865E-1 0 -2.185531272933E-1 -3.78545120625E-1 0 4.351570921043E-3 0 0
TRAC 0 1 7.071067811865E-1 0 -2.602842730417E-1 -4.508255853194E-1 0 4.920563691094E-3 0 0
TRAC 0 1 7.071067811865E-1 0 -2.996657407055E-1 -5.190362881897E-1 0 5.311718029866E-3 0 0
TRAC 0 1 7.071067811865E-1 0 -3.363382765465E-1 -5.825549835088E-1 0 5.51089487059E-3 0 0
TRAC 0 1 7.071067811865E-1 0 -3.699683280089E-1 -6.408039413027E-1 0 5.51089487059E-3 0 0
TRAC 0 1 7.071067811865E-1 0 -4.002504763862E-1 -6.932541608546E-1 0 5.311718029866E-3 0 0
TRAC 0 1 7.071067811865E-1 0 -4.269099403939E-1 -7.394297070185E-1 0 4.920563691094E-3 0 0
TRAC 0 1 7.071067811865E-1 0 -4.497049372092E-1 -7.789117996609E-1 0 4.351570921043E-3 0 0
TRAC 0 1 7.071067811865E-1 0 -4.684288110742E-1 -8.113425005096E-1 0 3.625309819636E-3 0 0
TRAC 0 1 7.071067811865E-1 0 -4.829118970356E-1 -8.364279412451E-1 0 2.768048900227E-3 0 0
TRAC 0 1 7.071067811865E-1 0 -4.930232021763E-1 -8.539412354796E-1 0 1.810881606164E-3 0 0
TRAC 0 1 7.071067811865E-1 0 -4.98673356892E-1 -8.637275905179E-1 0 7.898330279153E-4 0 0
TRAC 0 1 7.071067811865E-1 0 -7.279788804749E-2 5.574234310532E-17 0 7.898330279153E-4 0 0
TRAC 0 1 7.071067811865E-1 0 -1.664706834953E-1 1.274688896238E-16 0 1.810881606164E-3 0 0
TRAC 0 1 7.071067811865E-1 0 -2.591995347335E-1 1.984726450915E-16 0 2.768048900227E-3 0 0
TRAC 0 1 7.071067811865E-1 0 -3.497110175881E-1 2.677785311215E-16 0 3.625309819636E-3 0 0
TRAC 0 1 7.071067811865E-1 0 -4.371062545865E-1 3.34698264883E-16 0 4.351570921043E-3 0 0
TRAC 0 1 7.071067811865E-1 0 -5.205685460834E-1 3.986064882362E-16 0 4.920563691094E-3 0 0
TRAC 0 1 7.071067811865E-1 0 -5.993314814111E-1 4.589163500024E-16 0 5.311718029866E-3 0 0
TRAC 0 1 7.071067811865E-1 0 -6.726765530931E-1 5.150776791348E-16 0 5.51089487059E-3 0 0
TRAC 0 1 7.071067811865E-1 0 -7.399366560178E-1 5.665796640837E-16 0 5.51089487059E-3 0 0
TRAC 0 1 7.071067811865E-1 0 -8.005009527725E-1 6.129545782492E-16 0 5.311718029866E-3 0 0
TRAC 0 1 7.071067811865E-1 0 -8.538198807879E-1 6.537816140212E-16 0 4.920563691094E-3 0 0
TRAC 0 1 7.071067811865E-1 0 -8.994098744184E-1 6.886904985408E-16 0 4.351570921043E-3 0 0
TRAC 0 1 7.071067811865E-1 0 -9.368576221484E-1 7.173647535017E-16 0 3.625309819636E-3 0 0
TRAC 0 1 7.071067811865E-1 0 -9.658237940711E-1 7.395445493319E-16 0 2.768048900227E-3 0 0
TRAC 0 1 7.071067811865E-1 0 -9.860464043526E-1 7.550292798787E-16 0 1.810881606164E-3 0 0
TRAC 0 1 7.071067811865E-1 0 -9.97346713784E-1 7.636820820742E-16 0 7.898330279153E-4 0 0
TRAC 0 1 7.071067811865E-1 0 -3.639894402375E-2 6.304482039098E-2 0 7.898330279153E-4 0 0
TRAC 0 1 7.071067811865E-1 0 -8.323534174764E-2 1.441678408923E-1 0 1.810881606164E-3 0 0
TRAC 0 1 7.071067811865E-1 0 -1.295997673668E-1 2.244733817284E-1 0 2.768048900227E-3 0 0
TRAC 0 1 7.071067811865E-1 0 -1.74855508794E-1 3.028586252146E-1 0 3.625309819636E-3 0 0
TRAC 0 1 7.071067811865E-1 0 -2.185531272933E-1 3.78545120625E-1 0 4.351570921043E-3 0 0
TRAC 0 1 7.071067811865E-1 0 -2.602842730417E-1 4.508255853194E-1 0 4.920563691094E-3 0 0
TRAC 0 1 7.071067811865E-1 0 -2.996657407055E-1 5.190362881897E-1 0 5.311718029866E-3 0 0
TRAC 0 1 7.071067811865E-1 0 -3.363382765465E-1 5.825549835088E-1 0 5.51089487059E-3 0 0
TRAC 0 1 7.071067811865E-1 0 -3.699683280089E-1 6.408039413027E-1 0 5.51089487059E-3 0 0
TRAC 0 1 7.071067811865E-1 0 -4.002504763862E-1 6.932541608546E-1 0 5.311718029866E-3 0 0
TRAC 0 1 7.071067811865E-1 0 -4.269099403939E-1 7.394297070185E-1 0 4.920563691094E-3 0 0
TRAC 0 1 7.071067811865E-1 0 -4.497049372092E-1 7.789117996609E-1 0 4.351570921043E-3 0 0
TRAC 0 1 7.071067811865E-1 0 -4.684288110742E-1 8.113425005096E-1 0 3.625309819636E-3 0 0
TRAC 0 1 7.071067811865E-1 0 -4.829118970356E-1 8.364279412451E-1 0 2.768048900227E-3 0 0
TRAC 0 1 7.071067811865E-1 0 -4.930232021763E-1 8.539412354796E-1 0 1.810881606164E-3 0 0
TRAC 0 1 7.071067811865E-1 0 -4.98673356892E-1 8.637275905179E-1 0 7.898330279153E-4 0 0
BLNK Operands for field 3.
TRAC 0 1 -7.071067811865E-1 0 3.639894402375E-2 6.304482039098E-2 0 7.898330279153E-4 0 0
TRAC 0 1 -7.071067811865E-1 0 8.323534174764E-2 1.441678408923E-1 0 1.810881606164E-3 0 0
TRAC 0 1 -7.071067811865E-1 0 1.295997673668E-1 2.244733817284E-1 0 2.768048900227E-3 0 0
TRAC 0 1 -7.071067811865E-1 0 1.74855508794E-1 3.028586252146E-1 0 3.625309819636E-3 0 0
TRAC 0 1 -7.071067811865E-1 0 2.185531272933E-1 3.78545120625E-1 0 4.351570921043E-3 0 0
TRAC 0 1 -7.071067811865E-1 0 2.602842730417E-1 4.508255853194E-1 0 4.920563691094E-3 0 0
TRAC 0 1 -7.071067811865E-1 0 2.996657407055E-1 5.190362881897E-1 0 5.311718029866E-3 0 0
TRAC 0 1 -7.071067811865E-1 0 3.363382765465E-1 5.825549835088E-1 0 5.51089487059E-3 0 0
TRAC 0 1 -7.071067811865E-1 0 3.699683280089E-1 6.408039413027E-1 0 5.51089487059E-3 0 0
TRAC 0 1 -7.071067811865E-1 0 4.002504763862E-1 6.932541608546E-1 0 5.311718029866E-3 0 0
TRAC 0 1 -7.071067811865E-1 0 4.269099403939E-1 7.394297070185E-1 0 4.920563691094E-3 0 0
TRAC 0 1 -7.071067811865E-1 0 4.497049372092E-1 7.789117996609E-1 0 4.351570921043E-3 0 0
TRAC 0 1 -7.071067811865E-1 0 4.684288110742E-1 8.113425005096E-1 0 3.625309819636E-3 0 0
TRAC 0 1 -7.071067811865E-1 0 4.829118970356E-1 8.364279412451E-1 0 2.768048900227E-3 0 0
TRAC 0 1 -7.071067811865E-1 0 4.930232021763E-1 8.539412354796E-1 0 1.810881606164E-3 0 0
TRAC 0 1 -7.071067811865E-1 0 4.98673356892E-1 8.637275905179E-1 0 7.898330279153E-4 0 0
TRAC 0 1 -7.071067811865E-1 0 7.279788804749E-2 0 0 7.898330279153E-4 0 0
TRAC 0 1 -7.071067811865E-1 0 1.664706834953E-1 0 0 1.810881606164E-3 0 0
TRAC 0 1 -7.071067811865E-1 0 2.591995347335E-1 0 0 2.768048900227E-3 0 0
TRAC 0 1 -7.071067811865E-1 0 3.497110175881E-1 0 0 3.625309819636E-3 0 0
TRAC 0 1 -7.071067811865E-1 0 4.371062545865E-1 0 0 4.351570921043E-3 0 0
TRAC 0 1 -7.071067811865E-1 0 5.205685460834E-1 0 0 4.920563691094E-3 0 0
TRAC 0 1 -7.071067811865E-1 0 5.993314814111E-1 0 0 5.311718029866E-3 0 0
TRAC 0 1 -7.071067811865E-1 0 6.726765530931E-1 0 0 5.51089487059E-3 0 0
TRAC 0 1 -7.071067811865E-1 0 7.399366560178E-1 0 0 5.51089487059E-3 0 0
TRAC 0 1 -7.071067811865E-1 0 8.005009527725E-1 0 0 5.311718029866E-3 0 0
TRAC 0 1 -7.071067811865E-1 0 8.538198807879E-1 0 0 4.920563691094E-3 0 0
TRAC 0 1 -7.071067811865E-1 0 8.994098744184E-1 0 0 4.351570921043E-3 0 0
TRAC 0 1 -7.071067811865E-1 0 9.368576221484E-1 0 0 3.625309819636E-3 0 0
TRAC 0 1 -7.071067811865E-1 0 9.658237940711E-1 0 0 2.768048900227E-3 0 0
TRAC 0 1 -7.071067811865E-1 0 9.860464043526E-1 0 0 1.810881606164E-3 0 0
TRAC 0 1 -7.071067811865E-1 0 9.97346713784E-1 0 0 7.898330279153E-4 0 0
TRAC 0 1 -7.071067811865E-1 0 3.639894402375E-2 -6.304482039098E-2 0 7.898330279153E-4 0 0
TRAC 0 1 -7.071067811865E-1 0 8.323534174764E-2 -1.441678408923E-1 0 1.810881606164E-3 0 0
TRAC 0 1 -7.071067811865E-1 0 1.295997673668E-1 -2.244733817284E-1 0 2.768048900227E-3 0 0
TRAC 0 1 -7.071067811865E-1 0 1.74855508794E-1 -3.028586252146E-1 0 3.625309819636E-3 0 0
TRAC 0 1 -7.071067811865E-1 0 2.185531272933E-1 -3.78545120625E-1 0 4.351570921043E-3 0 0
TRAC 0 1 -7.071067811865E-1 0 2.602842730417E-1 -4.508255853194E-1 0 4.920563691094E-3 0 0
TRAC 0 1 -7.071067811865E-1 0 2.996657407055E-1 -5.190362881897E-1 0 5.311718029866E-3 0 0
TRAC 0 1 -7.071067811865E-1 0 3.363382765465E-1 -5.825549835088E-1 0 5.51089487059E-3 0 0
TRAC 0 1 -7.071067811865E-1 0 3.699683280089E-1 -6.408039413027E-1 0 5.51089487059E-3 0 0
TRAC 0 1 -7.071067811865E-1 0 4.002504763862E-1 -6.932541608546E-1 0 5.311718029866E-3 0 0
TRAC 0 1 -7.071067811865E-1 0 4.269099403939E-1 -7.394297070185E-1 0 4.920563691094E-3 0 0
TRAC 0 1 -7.071067811865E-1 0 4.497049372092E-1 -7.789117996609E-1 0 4.351570921043E-3 0 0
TRAC 0 1 -7.071067811865E-1 0 4.684288110742E-1 -8.113425005096E-1 0 3.625309819636E-3 0 0
TRAC 0 1 -7.071067811865E-1 0 4.829118970356E-1 -8.364279412451E-1 0 2.768048900227E-3 0 0
TRAC 0 1 -7.071067811865E-1 0 4.930232021763E-1 -8.539412354796E-1 0 1.810881606164E-3 0 0
TRAC 0 1 -7.071067811865E-1 0 4.98673356892E-1 -8.637275905179E-1 0 7.898330279153E-4 0 0
TRAC 0 1 -7.071067811865E-1 0 -3.639894402375E-2 -6.304482039098E-2 0 7.898330279153E-4 0 0
TRAC 0 1 -7.071067811865E-1 0 -8.323534174764E-2 -1.441678408923E-1 0 1.810881606164E-3 0 0
TRAC 0 1 -7.071067811865E-1 0 -1.295997673668E-1 -2.244733817284E-1 0 2.768048900227E-3 0 0
TRAC 0 1 -7.071067811865E-1 0 -1.74855508794E-1 -3.028586252146E-1 0 3.625309819636E-3 0 0
TRAC 0 1 -7.071067811865E-1 0 -2.185531272933E-1 -3.78545120625E-1 0 4.351570921043E-3 0 0
TRAC 0 1 -7.071067811865E-1 0 -2.602842730417E-1 -4.508255853194E-1 0 4.920563691094E-3 0 0
TRAC 0 1 -7.071067811865E-1 0 -2.996657407055E-1 -5.190362881897E-1 0 5.311718029866E-3 0 0
TRAC 0 1 -7.071067811865E-1 0 -3.363382765465E-1 -5.825549835088E-1 0 5.51089487059E-3 0 0
TRAC 0 1 -7.071067811865E-1 0 -3.699683280089E-1 -6.408039413027E-1 0 5.51089487059E-3 0 0
TRAC 0 1 -7.071067811865E-1 0 -4.002504763862E-1 -6.932541608546E-1 0 5.311718029866E-3 0 0
TRAC 0 1 -7.071067811865E-1 0 -4.269099403939E-1 -7.394297070185E-1 0 4.920563691094E-3 0 0
TRAC 0 1 -7.071067811865E-1 0 -4.497049372092E-1 -7.789117996609E-1 0 4.351570921043E-3 0 0
TRAC 0 1 -7.071067811865E-1 0 -4.684288110742E-1 -8.113425005096E-1 0 3.625309819636E-3 0 0
TRAC 0 1 -7.071067811865E-1 0 -4.829118970356E-1 -8.364279412451E-1 0 2.768048900227E-3 0 0
TRAC 0 1 -7.071067811865E-1 0 -4.930232021763E-1 -8.539412354796E-1 0 1.810881606164E-3 0 0
TRAC 0 1 -7.071067811865E-1 0 -4.98673356892E-1 -8.637275905179E-1 0 7.898330279153E-4 0 0
TRAC 0 1 -7.071067811865E-1 0 -7.279788804749E-2 5.574234310532E-17 0 7.898330279153E-4 0 0
TRAC 0 1 -7.071067811865E-1 0 -1.664706834953E-1 1.274688896238E-16 0 1.810881606164E-3 0 0
TRAC 0 1 -7.071067811865E-1 0 -2.591995347335E-1 1.984726450915E-16 0 2.768048900227E-3 0 0
TRAC 0 1 -7.071067811865E-1 0 -3.497110175881E-1 2.677785311215E-16 0 3.625309819636E-3 0 0
TRAC 0 1 -7.071067811865E-1 0 -4.371062545865E-1 3.34698264883E-16 0 4.351570921043E-3 0 0
TRAC 0 1 -7.071067811865E-1 0 -5.205685460834E-1 3.986064882362E-16 0 4.920563691094E-3 0 0
TRAC 0 1 -7.071067811865E-1 0 -5.993314814111E-1 4.589163500024E-16 0 5.311718029866E-3 0 0
TRAC 0 1 -7.071067811865E-1 0 -6.726765530931E-1 5.150776791348E-16 0 5.51089487059E-3 0 0
TRAC 0 1 -7.071067811865E-1 0 -7.399366560178E-1 5.665796640837E-16 0 5.51089487059E-3 0 0
TRAC 0 1 -7.071067811865E-1 0 -8.005009527725E-1 6.129545782492E-16 0 5.311718029866E-3 0 0
TRAC 0 1 -7.071067811865E-1 0 -8.538198807879E-1 6.537816140212E-16 0 4.920563691094E-3 0 0
TRAC 0 1 -7.071067811865E-1 0 -8.994098744184E-1 6.886904985408E-16 0 4.351570921043E-3 0 0
TRAC 0 1 -7.071067811865E-1 0 -9.368576221484E-1 7.173647535017E-16 0 3.625309819636E-3 0 0
TRAC 0 1 -7.071067811865E-1 0 -9.658237940711E-1 7.395445493319E-16 0 2.768048900227E-3 0 0
TRAC 0 1 -7.071067811865E-1 0 -9.860464043526E-1 7.550292798787E-16 0 1.810881606164E-3 0 0
TRAC 0 1 -7.071067811865E-1 0 -9.97346713784E-1 7.636820820742E-16 0 7.898330279153E-4 0 0
TRAC 0 1 -7.071067811865E-1 0 -3.639894402375E-2 6.304482039098E-2 0 7.898330279153E-4 0 0
TRAC 0 1 -7.071067811865E-1 0 -8.323534174764E-2 1.441678408923E-1 0 1.810881606164E-3 0 0
TRAC 0 1 -7.071067811865E-1 0 -1.295997673668E-1 2.244733817284E-1 0 2.768048900227E-3 0 0
TRAC 0 1 -7.071067811865E-1 0 -1.74855508794E-1 3.028586252146E-1 0 3.625309819636E-3 0 0
TRAC 0 1 -7.071067811865E-1 0 -2.185531272933E-1 3.78545120625E-1 0 4.351570921043E-3 0 0
TRAC 0 1 -7.071067811865E-1 0 -2.602842730417E-1 4.508255853194E-1 0 4.920563691094E-3 0 0
TRAC 0 1 -7.071067811865E-1 0 -2.996657407055E-1 5.190362881897E-1 0 5.311718029866E-3 0 0
TRAC 0 1 -7.071067811865E-1 0 -3.363382765465E-1 5.825549835088E-1 0 5.51089487059E-3 0 0
TRAC 0 1 -7.071067811865E-1 0 -3.699683280089E-1 6.408039413027E-1 0 5.51089487059E-3 0 0
TRAC 0 1 -7.071067811865E-1 0 -4.002504763862E-1 6.932541608546E-1 0 5.311718029866E-3 0 0
TRAC 0 1 -7.071067811865E-1 0 -4.269099403939E-1 7.394297070185E-1 0 4.920563691094E-3 0 0
TRAC 0 1 -7.071067811865E-1 0 -4.497049372092E-1 7.789117996609E-1 0 4.351570921043E-3 0 0
TRAC 0 1 -7.071067811865E-1 0 -4.684288110742E-1 8.113425005096E-1 0 3.625309819636E-3 0 0
TRAC 0 1 -7.071067811865E-1 0 -4.829118970356E-1 8.364279412451E-1 0 2.768048900227E-3 0 0
TRAC 0 1 -7.071067811865E-1 0 -4.930232021763E-1 8.539412354796E-1 0 1.810881606164E-3 0 0
TRAC 0 1 -7.071067811865E-1 0 -4.98673356892E-1 8.637275905179E-1 0 7.898330279153E-4 0 0
BLNK Operands for field 4.
TRAC 0 1 0 7.071067811865E-1 3.639894402375E-2 6.304482039098E-2 0 7.898330279153E-4 0 0
TRAC 0 1 0 7.071067811865E-1 8.323534174764E-2 1.441678408923E-1 0 1.810881606164E-3 0 0
TRAC 0 1 0 7.071067811865E-1 1.295997673668E-1 2.244733817284E-1 0 2.768048900227E-3 0 0
TRAC 0 1 0 7.071067811865E-1 1.74855508794E-1 3.028586252146E-1 0 3.625309819636E-3 0 0
TRAC 0 1 0 7.071067811865E-1 2.185531272933E-1 3.78545120625E-1 0 4.351570921043E-3 0 0
TRAC 0 1 0 7.071067811865E-1 2.602842730417E-1 4.508255853194E-1 0 4.920563691094E-3 0 0
TRAC 0 1 0 7.071067811865E-1 2.996657407055E-1 5.190362881897E-1 0 5.311718029866E-3 0 0
TRAC 0 1 0 7.071067811865E-1 3.363382765465E-1 5.825549835088E-1 0 5.51089487059E-3 0 0
TRAC 0 1 0 7.071067811865E-1 3.699683280089E-1 6.408039413027E-1 0 5.51089487059E-3 0 0
TRAC 0 1 0 7.071067811865E-1 4.002504763862E-1 6.932541608546E-1 0 5.311718029866E-3 0 0
TRAC 0 1 0 7.071067811865E-1 4.269099403939E-1 7.394297070185E-1 0 4.920563691094E-3 0 0
TRAC 0 1 0 7.071067811865E-1 4.497049372092E-1 7.789117996609E-1 0 4.351570921043E-3 0 0
TRAC 0 1 0 7.071067811865E-1 4.684288110742E-1 8.113425005096E-1 0 3.625309819636E-3 0 0
TRAC 0 1 0 7.071067811865E-1 4.829118970356E-1 8.364279412451E-1 0 2.768048900227E-3 0 0
TRAC 0 1 0 7.071067811865E-1 4.930232021763E-1 8.539412354796E-1 0 1.810881606164E-3 0 0
TRAC 0 1 0 7.071067811865E-1 4.98673356892E-1 8.637275905179E-1 0 7.898330279153E-4 0 0
TRAC 0 1 0 7.071067811865E-1 7.279788804749E-2 0 0 7.898330279153E-4 0 0
TRAC 0 1 0 7.071067811865E-1 1.664706834953E-1 0 0 1.810881606164E-3 0 0
TRAC 0 1 0 7.071067811865E-1 2.591995347335E-1 0 0 2.768048900227E-3 0 0
TRAC 0 1 0 7.071067811865E-1 3.497110175881E-1 0 0 3.625309819636E-3 0 0
TRAC 0 1 0 7.071067811865E-1 4.371062545865E-1 0 0 4.351570921043E-3 0 0
TRAC 0 1 0 7.071067811865E-1 5.205685460834E-1 0 0 4.920563691094E-3 0 0
TRAC 0 1 0 7.071067811865E-1 5.993314814111E-1 0 0 5.311718029866E-3 0 0
TRAC 0 1 0 7.071067811865E-1 6.726765530931E-1 0 0 5.51089487059E-3 0 0
TRAC 0 1 0 7.071067811865E-1 7.399366560178E-1 0 0 5.51089487059E-3 0 0
TRAC 0 1 0 7.071067811865E-1 8.005009527725E-1 0 0 5.311718029866E-3 0 0
TRAC 0 1 0 7.071067811865E-1 8.538198807879E-1 0 0 4.920563691094E-3 0 0
TRAC 0 1 0 7.071067811865E-1 8.994098744184E-1 0 0 4.351570921043E-3 0 0
TRAC 0 1 0 7.071067811865E-1 9.368576221484E-1 0 0 3.625309819636E-3 0 0
TRAC 0 1 0 7.071067811865E-1 9.658237940711E-1 0 0 2.768048900227E-3 0 0
TRAC 0 1 0 7.071067811865E-1 9.860464043526E-1 0 0 1.810881606164E-3 0 0
TRAC 0 1 0 7.071067811865E-1 9.97346713784E-1 0 0 7.898330279153E-4 0 0
TRAC 0 1 0 7.071067811865E-1 3.639894402375E-2 -6.304482039098E-2 0 7.898330279153E-4 0 0
TRAC 0 1 0 7.071067811865E-1 8.323534174764E-2 -1.441678408923E-1 0 1.810881606164E-3 0 0
TRAC 0 1 0 7.071067811865E-1 1.295997673668E-1 -2.244733817284E-1 0 2.768048900227E-3 0 0
TRAC 0 1 0 7.071067811865E-1 1.74855508794E-1 -3.028586252146E-1 0 3.625309819636E-3 0 0
TRAC 0 1 0 7.071067811865E-1 2.185531272933E-1 -3.78545120625E-1 0 4.351570921043E-3 0 0
TRAC 0 1 0 7.071067811865E-1 2.602842730417E-1 -4.508255853194E-1 0 4.920563691094E-3 0 0
TRAC 0 1 0 7.071067811865E-1 2.996657407055E-1 -5.190362881897E-1 0 5.311718029866E-3 0 0
TRAC 0 1 0 7.071067811865E-1 3.363382765465E-1 -5.825549835088E-1 0 5.51089487059E-3 0 0
TRAC 0 1 0 7.071067811865E-1 3.699683280089E-1 -6.408039413027E-1 0 5.51089487059E-3 0 0