VERS 130404 1 24485
MODE SEQ
NAME LAIKIN LENS
NOTE 0 Notes...
NOTE 4
NOTE 0  
NOTE 4
NOTE 0  
PFIL 0 0 0
UNIT IN X W X CM MR CPMM
ENPD 4.0
ENVD 2.0E+1 1 0
GFAC 0 0
GCAT SCHOTT
RAIM 0 0 1 1 0 0 0 0 0
PUSH 0 0 0 0 0 0
SDMA 0 1 0
FTYP 0 0 2 5 0 0 0
ROPD 2
PICB 1
XFLN 0 0 0 0 0 0 0 0 0 0 0 0
YFLN 0 2.5 0 0 0 0 0 0 0 0 0 0
FWGN 1 1 1 1 1 1 1 1 1 1 1 1
VDXN 0 0 0 0 0 0 0 0 0 0 0 0
VDYN 0 0 0 0 0 0 0 0 0 0 0 0
VCXN 0 0 0 0 0 0 0 0 0 0 0 0
VCYN 0 0 0 0 0 0 0 0 0 0 0 0
VANN 0 0 0 0 0 0 0 0 0 0 0 0
WAVM 1 4.8E-1 3.00000012E-1
WAVM 2 5.1E-1 6.00000024E-1
WAVM 3 5.46E-1 1
WAVM 4 5.9E-1 6.00000024E-1
WAVM 5 6.44E-1 3.00000012E-1
WAVM 6 5.5E-1 1
WAVM 7 5.5E-1 1
WAVM 8 5.5E-1 1
WAVM 9 5.5E-1 1
WAVM 10 5.5E-1 1
WAVM 11 5.5E-1 1
WAVM 12 5.5E-1 1
WAVM 13 5.5E-1 1
WAVM 14 5.5E-1 1
WAVM 15 5.5E-1 1
WAVM 16 5.5E-1 1
WAVM 17 5.5E-1 1
WAVM 18 5.5E-1 1
WAVM 19 5.5E-1 1
WAVM 20 5.5E-1 1
WAVM 21 5.5E-1 1
WAVM 22 5.5E-1 1
WAVM 23 5.5E-1 1
WAVM 24 5.5E-1 1
PWAV 3
POLS 1 0 1 0 0 1 0
GLRS 1 0
GSTD 0 100.000 100.000 100.000 100.000 100.000 100.000 0 1 1 0 0 1 1 1 1 1 1
NSCD 100 500 0 1.0E-6 5 1.0E-6 0 0 0 0 0 1 1000000 0 2
COFN QF "COATING.DAT" "SCATTER_PROFILE.DAT" "ABG_DATA.DAT" "PROFILE.GRD"
COFN COATING.DAT SCATTER_PROFILE.DAT ABG_DATA.DAT PROFILE.GRD
SURF 0
  TYPE STANDARD
  CURV 0.0 0 0 0 0 ""
  HIDE 0 0 0 0 0 0 0 0 0 0
  MIRR 2 0
  SLAB 11
  DISZ INFINITY
  DIAM 0 0 0 0 1 ""
  POPS 0 0 0 0 0 0 0 0 1 1 1 1 0 0 0
SURF 1
  TYPE STANDARD
  CURV 2.815386651126000100E-001 0 0 0 0 ""
  HIDE 0 0 0 0 0 0 0 0 0 0
  MIRR 2 0
  SLAB 12
  DISZ 1.39909
  GLAS LAF2 0 0 0 0 0 0 0 0 0 0 
  DIAM 2.21499991 1 0 0 1 ""
  POPS 0 0 0 0 0 0 0 0 1 1 1 1 0 0 0
  FLAP 0 2.21499991 0
SURF 2
  TYPE STANDARD
  CURV 0.0 0 0 0 0 ""
  HIDE 0 0 0 0 0 0 0 0 0 0
  MIRR 2 0
  SLAB 13
  DISZ 8.77E-3
  DIAM 2.21499991 1 0 0 1 ""
  POPS 0 0 0 0 0 0 0 0 1 1 1 1 0 0 0
  FLAP 0 2.21499991 0
SURF 3
  TYPE STANDARD
  CURV 5.867373880798000300E-001 0 0 0 0 ""
  HIDE 0 0 0 0 0 0 0 0 0 0
  MIRR 2 0
  SLAB 1
  DISZ 9.38524E-1
  GLAS PSK3 0 0 0 0 0 0 0 0 0 0 
  DIAM 1.47000003 1 0 0 1 ""
  POPS 0 0 0 0 0 0 0 0 1 1 1 1 0 0 0
  FLAP 0 1.47000003 0
SURF 4
  TYPE STANDARD
  CURV -6.158337002676000200E-002 0 0 0 0 ""
  HIDE 0 0 0 0 0 0 0 0 0 0
  MIRR 2 0
  SLAB 2
  DISZ 2.52193E-1
  GLAS SF1 0 0 0 0 0 0 0 0 0 0 
  DIAM 1.47000003 1 0 0 1 ""
  POPS 0 0 0 0 0 0 0 0 1 1 1 1 0 0 0
  FLAP 0 1.47000003 0
SURF 5
  TYPE STANDARD
  CURV 1.014157640664000000E+000 0 0 0 0 ""
  HIDE 0 0 0 0 0 0 0 0 0 0
  MIRR 2 0
  SLAB 3
  DISZ 4.33629E-1
  DIAM 8.10000002E-1 1 0 0 1 ""
  POPS 0 0 0 0 0 0 0 0 1 1 1 1 0 0 0
  FLAP 0 8.10000002E-1 0
SURF 6
  STOP
  TYPE STANDARD
  CURV 0.0 0 0 0 0 ""
  HIDE 0 0 0 0 0 0 0 0 0 0
  MIRR 2 0
  SLAB 4
  DISZ 2.77664E-1
  DIAM 8.00000012E-1 1 0 0 1 ""
  POPS 0 0 0 0 0 0 0 0 1 1 1 1 0 0 0
SURF 7
  TYPE STANDARD
  CURV -6.088724899231999800E-001 0 0 0 0 ""
  HIDE 0 0 0 0 0 0 0 0 0 0
  MIRR 2 0
  SLAB 5
  DISZ 2.70172E-1
  GLAS SF1 0 0 0 0 0 0 0 0 0 0 
  DIAM 8.10000002E-1 1 0 0 1 ""
  POPS 0 0 0 0 0 0 0 0 1 1 1 1 0 0 0
  FLAP 0 8.10000002E-1 0
SURF 8
  TYPE STANDARD
  CURV 5.546988539921999800E-001 0 0 0 0 ""
  HIDE 0 0 0 0 0 0 0 0 0 0
  MIRR 2 0
  SLAB 6
  DISZ 1.158584
  GLAS LAF2 0 0 0 0 0 0 0 0 0 0 
  DIAM 1.02499998 1 0 0 1 ""
  POPS 0 0 0 0 0 0 0 0 1 1 1 1 0 0 0
  FLAP 0 1.02499998 0
SURF 9
  TYPE STANDARD
  CURV -4.285151094428000200E-001 0 0 0 0 ""
  HIDE 0 0 0 0 0 0 0 0 0 0
  MIRR 2 0
  SLAB 7
  DISZ 4.47246E-1
  DIAM 1.02499998 1 0 0 1 ""
  POPS 0 0 0 0 0 0 0 0 1 1 1 1 0 0 0
  FLAP 0 1.02499998 0
SURF 10
  TYPE STANDARD
  CURV 6.026746701863000500E-001 0 0 0 0 ""
  HIDE 0 0 0 0 0 0 0 0 0 0
  MIRR 2 0
  SLAB 8
  DISZ 1.043759
  GLAS LAF2 0 0 0 0 0 0 0 0 0 0 
  DIAM 9.30000007E-1 1 0 0 1 ""
  POPS 0 0 0 0 0 0 0 0 1 1 1 1 0 0 0
  FLAP 0 9.30000007E-1 0
SURF 11
  TYPE STANDARD
  CURV 6.939028147473999500E-002 0 0 0 0 ""
  HIDE 0 0 0 0 0 0 0 0 0 0
  MIRR 2 0
  SLAB 9
  DISZ 8.12831E-1
  DIAM 9.30000007E-1 1 0 0 1 ""
  POPS 0 0 0 0 0 0 0 0 1 1 1 1 0 0 0
  FLAP 0 9.30000007E-1 0
SURF 12
  TYPE STANDARD
  CURV 0.0 0 0 0 0 ""
  HIDE 0 0 0 0 0 0 0 0 0 0
  MIRR 2 0
  SLAB 10
  DISZ 0
  DIAM 1.780292925302E-1 0 0 0 1 ""
  POPS 0 0 0 0 0 0 0 0 1 1 1 1 0 0 0
DMFS 0 0 0 0 0 0 0 0 0 0
BLNK Start of default merit function.
BLNK No default air thickness boundary constraints.
BLNK No default glass thickness boundary constraints.
BLNK Operands for field 1.
OPDX 0 1 0 0 3.35710687E-1 0 0 2.61799398E-2 0 0
OPDX 0 1 0 0 7.07106781E-1 0 0 4.18879037E-2 0 0
OPDX 0 1 0 0 9.41965145E-1 0 0 2.61799398E-2 0 0
OPDX 0 2 0 0 3.35710687E-1 0 0 5.23598797E-2 0 0
OPDX 0 2 0 0 7.07106781E-1 0 0 8.37758074E-2 0 0
OPDX 0 2 0 0 9.41965145E-1 0 0 5.23598797E-2 0 0
OPDX 0 3 0 0 3.35710687E-1 0 0 8.72664626E-2 0 0
OPDX 0 3 0 0 7.07106781E-1 0 0 1.3962634E-1 0 0
OPDX 0 3 0 0 9.41965145E-1 0 0 8.72664626E-2 0 0
OPDX 0 4 0 0 3.35710687E-1 0 0 5.23598797E-2 0 0
OPDX 0 4 0 0 7.07106781E-1 0 0 8.37758074E-2 0 0
OPDX 0 4 0 0 9.41965145E-1 0 0 5.23598797E-2 0 0
OPDX 0 5 0 0 3.35710687E-1 0 0 2.61799398E-2 0 0
OPDX 0 5 0 0 7.07106781E-1 0 0 4.18879037E-2 0 0
OPDX 0 5 0 0 9.41965145E-1 0 0 2.61799398E-2 0 0
BLNK Operands for field 2.
OPDX 0 1 0 1 1.67855344E-1 2.90733983E-1 0 8.72664661E-3 0 0
OPDX 0 1 0 1 3.53553391E-1 6.12372436E-1 0 1.39626346E-2 0 0
OPDX 0 1 0 1 4.70982573E-1 8.15765745E-1 0 8.72664661E-3 0 0
OPDX 0 1 0 1 3.35710687E-1 0 0 8.72664661E-3 0 0
OPDX 0 1 0 1 7.07106781E-1 0 0 1.39626346E-2 0 0
OPDX 0 1 0 1 9.41965145E-1 0 0 8.72664661E-3 0 0
OPDX 0 1 0 1 1.67855344E-1 -2.90733983E-1 0 8.72664661E-3 0 0
OPDX 0 1 0 1 3.53553391E-1 -6.12372436E-1 0 1.39626346E-2 0 0
OPDX 0 1 0 1 4.70982573E-1 -8.15765745E-1 0 8.72664661E-3 0 0
OPDX 0 2 0 1 1.67855344E-1 2.90733983E-1 0 1.74532932E-2 0 0
OPDX 0 2 0 1 3.53553391E-1 6.12372436E-1 0 2.79252691E-2 0 0
OPDX 0 2 0 1 4.70982573E-1 8.15765745E-1 0 1.74532932E-2 0 0
OPDX 0 2 0 1 3.35710687E-1 0 0 1.74532932E-2 0 0
OPDX 0 2 0 1 7.07106781E-1 0 0 2.79252691E-2 0 0
OPDX 0 2 0 1 9.41965145E-1 0 0 1.74532932E-2 0 0
OPDX 0 2 0 1 1.67855344E-1 -2.90733983E-1 0 1.74532932E-2 0 0
OPDX 0 2 0 1 3.53553391E-1 -6.12372436E-1 0 2.79252691E-2 0 0
OPDX 0 2 0 1 4.70982573E-1 -8.15765745E-1 0 1.74532932E-2 0 0
OPDX 0 3 0 1 1.67855344E-1 2.90733983E-1 0 2.90888209E-2 0 0
OPDX 0 3 0 1 3.53553391E-1 6.12372436E-1 0 4.65421134E-2 0 0
OPDX 0 3 0 1 4.70982573E-1 8.15765745E-1 0 2.90888209E-2 0 0
OPDX 0 3 0 1 3.35710687E-1 0 0 2.90888209E-2 0 0
OPDX 0 3 0 1 7.07106781E-1 0 0 4.65421134E-2 0 0
OPDX 0 3 0 1 9.41965145E-1 0 0 2.90888209E-2 0 0
OPDX 0 3 0 1 1.67855344E-1 -2.90733983E-1 0 2.90888209E-2 0 0
OPDX 0 3 0 1 3.53553391E-1 -6.12372436E-1 0 4.65421134E-2 0 0
OPDX 0 3 0 1 4.70982573E-1 -8.15765745E-1 0 2.90888209E-2 0 0
OPDX 0 4 0 1 1.67855344E-1 2.90733983E-1 0 1.74532932E-2 0 0
OPDX 0 4 0 1 3.53553391E-1 6.12372436E-1 0 2.79252691E-2 0 0
OPDX 0 4 0 1 4.70982573E-1 8.15765745E-1 0 1.74532932E-2 0 0
OPDX 0 4 0 1 3.35710687E-1 0 0 1.74532932E-2 0 0
OPDX 0 4 0 1 7.07106781E-1 0 0 2.79252691E-2 0 0
OPDX 0 4 0 1 9.41965145E-1 0 0 1.74532932E-2 0 0
OPDX 0 4 0 1 1.67855344E-1 -2.90733983E-1 0 1.74532932E-2 0 0
OPDX 0 4 0 1 3.53553391E-1 -6.12372436E-1 0 2.79252691E-2 0 0
OPDX 0 4 0 1 4.70982573E-1 -8.15765745E-1 0 1.74532932E-2 0 0
OPDX 0 5 0 1 1.67855344E-1 2.90733983E-1 0 8.72664661E-3 0 0
OPDX 0 5 0 1 3.53553391E-1 6.12372436E-1 0 1.39626346E-2 0 0
OPDX 0 5 0 1 4.70982573E-1 8.15765745E-1 0 8.72664661E-3 0 0
OPDX 0 5 0 1 3.35710687E-1 0 0 8.72664661E-3 0 0
OPDX 0 5 0 1 7.07106781E-1 0 0 1.39626346E-2 0 0
OPDX 0 5 0 1 9.41965145E-1 0 0 8.72664661E-3 0 0
OPDX 0 5 0 1 1.67855344E-1 -2.90733983E-1 0 8.72664661E-3 0 0
OPDX 0 5 0 1 3.53553391E-1 -6.12372436E-1 0 1.39626346E-2 0 0
OPDX 0 5 0 1 4.70982573E-1 -8.15765745E-1 0 8.72664661E-3 0 0
TOL TOFF   0   0              0              0   0 0 0
MNUM 1 1
MOFF   0   1 "" 0 0 0 1 1 0 0.0 ""
