VERS 130404 0 24485
MODE SEQ
NAME A SIMPLE DOUBLET USING A CROWN AND A FLINT.
NOTE 0 Notes...
NOTE 4
NOTE 0  
NOTE 4
NOTE 0  
PFIL 0 0 0
UNIT MM X W X CM MR CPMM
ENPD 2.0E+1
ENVD 2.0E+1 1 0
GFAC 0 0
GCAT SCHOTT
RAIM 0 0 1 1 0 0 0 0 0
PUSH 0 0 0 0 0 0
SDMA 0 1 0
FTYP 0 0 1 3 0 0 0
ROPD 2
PICB 1
XFLN 0 0 0 0 0 0 0 0 0 0 0 0
YFLN 0 0 0 0 0 0 0 0 0 0 0 0
FWGN 1 1 1 1 1 1 1 1 1 1 1 1
VDXN 0 0 0 0 0 0 0 0 0 0 0 0
VDYN 0 0 0 0 0 0 0 0 0 0 0 0
VCXN 0 0 0 0 0 0 0 0 0 0 0 0
VCYN 0 0 0 0 0 0 0 0 0 0 0 0
VANN 0 0 0 0 0 0 0 0 0 0 0 0
WAVM 1 4.86E-1 1
WAVM 2 5.89E-1 1
WAVM 3 6.56E-1 1
WAVM 4 5.5E-1 1
WAVM 5 5.5E-1 1
WAVM 6 5.5E-1 1
WAVM 7 5.5E-1 1
WAVM 8 5.5E-1 1
WAVM 9 5.5E-1 1
WAVM 10 5.5E-1 1
WAVM 11 5.5E-1 1
WAVM 12 5.5E-1 1
WAVM 13 5.5E-1 1
WAVM 14 5.5E-1 1
WAVM 15 5.5E-1 1
WAVM 16 5.5E-1 1
WAVM 17 5.5E-1 1
WAVM 18 5.5E-1 1
WAVM 19 5.5E-1 1
WAVM 20 5.5E-1 1
WAVM 21 5.5E-1 1
WAVM 22 5.5E-1 1
WAVM 23 5.5E-1 1
WAVM 24 5.5E-1 1
PWAV 2
POLS 1 0 1 0 0 1 0
GLRS 1 0
GSTD 0 100.000 100.000 100.000 100.000 100.000 100.000 0 1 1 0 0 1 1 1 1 1 1
NSCD 100 500 0 1.0E-6 5 1.0E-6 0 0 0 0 0 1 1000000 0 2
COFN QF "COATING.DAT" "SCATTER_PROFILE.DAT" "ABG_DATA.DAT" "PROFILE.GRD"
COFN COATING.DAT SCATTER_PROFILE.DAT ABG_DATA.DAT PROFILE.GRD
SURF 0
  TYPE STANDARD
  CURV 0.0 0 0 0 0 ""
  HIDE 0 0 0 0 0 0 0 0 0 0
  MIRR 2 0
  SLAB 3
  DISZ INFINITY
  DIAM 0 0 0 0 1 ""
  POPS 0 0 0 0 0 0 0 0 1 1 1 1 0 0 0
SURF 1
  STOP
  TYPE STANDARD
  CURV 1.077039960779000100E-002 1 0 0 0 ""
  HIDE 0 0 0 0 0 0 0 0 0 0
  MIRR 2 0
  SLAB 4
  DISZ 6.0
  GLAS BK7 0 0 0 0 0 0 0 0 0 0 
  DIAM 1.5E+1 1 0 0 1 ""
  POPS 0 0 0 0 0 0 0 0 1 1 1 1 0 0 0
  FLAP 0 1.5E+1 0
SURF 2
  TYPE STANDARD
  CURV -3.255623054351999800E-002 1 0 0 0 ""
  HIDE 0 0 0 0 0 0 0 0 0 0
  MIRR 2 0
  SLAB 5
  DISZ 3.0
  GLAS F2 0 0 0 0 0 0 0 0 0 0 
  DIAM 1.5E+1 1 0 0 1 ""
  POPS 0 0 0 0 0 0 0 0 1 1 1 1 0 0 0
  FLAP 0 1.5E+1 0
SURF 3
  TYPE STANDARD
  CURV -1.278816413287784900E-002 2 -1.00000001E-1 0 0 ""
  HIDE 0 0 0 0 0 0 0 0 0 0
  MIRR 2 0
  SLAB 1
  DISZ 9.737604742911E+1
  MAZH 0 0
  DIAM 1.5E+1 1 0 0 1 ""
  POPS 0 0 0 0 0 0 0 0 1 1 1 1 0 0 0
  FLAP 0 1.5E+1 0
SURF 4
  TYPE STANDARD
  CURV 0.0 0 0 0 0 ""
  HIDE 0 0 0 0 0 0 0 0 0 0
  MIRR 2 0
  SLAB 2
  DISZ 0
  DIAM 8.437369439982E-3 0 0 0 1 ""
  POPS 0 0 0 0 0 0 0 0 1 1 1 1 0 0 0
TRAR 0 1 0 0 3.35711002E-1 0 0 2.90888906E-1 0 0
TRAR 0 1 0 0 7.07107008E-1 0 0 4.65422183E-1 0 0
TRAR 0 1 0 0 9.41964984E-1 0 0 2.90888906E-1 0 0
TRAR 0 2 0 0 3.35711002E-1 0 0 2.90888906E-1 0 0
TRAR 0 2 0 0 7.07107008E-1 0 0 4.65422183E-1 0 0
TRAR 0 2 0 0 9.41964984E-1 0 0 2.90888906E-1 0 0
TRAR 0 3 0 0 3.35711002E-1 0 0 2.90888906E-1 0 0
TRAR 0 3 0 0 7.07107008E-1 0 0 4.65422183E-1 0 0
TRAR 0 3 0 0 9.41964984E-1 0 0 2.90888906E-1 0 0
TOL TOFF   0   0              0              0   0 0 0
MNUM 1 1
MOFF   0   1 "" 0 0 0 1 1 0 0.0 ""
